/*--------------------------------*- C++ -*----------------------------------*\
| =========                 |                                                 |
| \\      /  F ield         | OpenFOAM: The Open Source CFD Toolbox           |
|  \\    /   O peration     | Version:  3.0.1                                 |
|   \\  /    A nd           | Web:      www.OpenFOAM.org                      |
|    \\/     M anipulation  |                                                 |
\*---------------------------------------------------------------------------*/
FoamFile
{
    version     3.0.1;
    format      ascii;
    class       volVectorField;
    object      U;
}
// * * * * * * * * * * * * * * * * * * * * * * * * * * * * * * * * * * * * * //

dimensions      [0 1 -1 0 0 0 0];

internalField   uniform (0 0 0);

boundaryField
{
    movingWall
    {
        type            fixedValue;
        value           uniform ($[boundary-field.velocity.x] $[boundary-field.velocity.y] $[boundary-field.velocity.z]);
    }

    CPLReceiveMD 
    {
        type            fixedValue;
        value           uniform (0 0 0);
    }

    streamwiseIn
    {
        type            cyclic; 
        neighbourPatch  streamwiseOut;
    }

    streamwiseOut
    {
        type            cyclic; 
        neighbourPatch  streamwiseIn;
    }

    front
    {
        type            cyclic;
        neighbourPatch  back;
    }

    back 
    {
        type            cyclic;
        neighbourPatch  front;
    }
}

// ************************************************************************* //
