/*--------------------------------*- C++ -*----------------------------------*\
| =========                 |                                                 |
| \\      /  F ield         | OpenFOAM: The Open Source CFD Toolbox           |
|  \\    /   O peration     | Version:  3.0.x                                 |
|   \\  /    A nd           | Web:      www.OpenFOAM.org                      |
|    \\/     M anipulation  |                                                 |
\*---------------------------------------------------------------------------*/
FoamFile
{
    version     2.0;
    format      ascii;
    class       volScalarField;
    location    "constant";
    object      ccy;
}
// * * * * * * * * * * * * * * * * * * * * * * * * * * * * * * * * * * * * * //

dimensions      [0 1 0 0 0 0 0];

internalField   nonuniform List<scalar> 
96
(
2.5
2.5
7.5
7.5
12.5
12.5
17.5
17.5
22.5
22.5
27.5
27.5
32.5
32.5
37.5
37.5
42.5
42.5
47.5
47.5
52.5
52.5
57.5
57.5
62.5
62.5
67.5
67.5
72.5
72.5
77.5
77.5
82.5
82.5
87.5
87.5
92.5
92.5
97.5
97.5
102.5
102.5
107.5
107.5
112.5
112.5
117.5
117.5
2.5
2.5
7.5
7.5
12.5
12.5
17.5
17.5
22.5
22.5
27.5
27.5
32.5
32.5
37.5
37.5
42.5
42.5
47.5
47.5
52.5
52.5
57.5
57.5
62.5
62.5
67.5
67.5
72.5
72.5
77.5
77.5
82.5
82.5
87.5
87.5
92.5
92.5
97.5
97.5
102.5
102.5
107.5
107.5
112.5
112.5
117.5
117.5
)
;

boundaryField
{
    movingWall
    {
        type            calculated;
        value           nonuniform List<scalar> 4(120 120 120 120);
    }
    CPLReceiveMD
    {
        type            calculated;
        value           uniform 0;
    }
    streamwiseIn
    {
        type            cyclic;
    }
    streamwiseOut
    {
        type            cyclic;
    }
    front
    {
        type            cyclic;
    }
    back
    {
        type            cyclic;
    }
}


// ************************************************************************* //
