/*--------------------------------*- C++ -*----------------------------------*\
| =========                 |                                                 |
| \\      /  F ield         | OpenFOAM: The Open Source CFD Toolbox           |
|  \\    /   O peration     | Version:  3.0.x                                 |
|   \\  /    A nd           | Web:      www.OpenFOAM.org                      |
|    \\/     M anipulation  |                                                 |
\*---------------------------------------------------------------------------*/
FoamFile
{
    version     2.0;
    format      ascii;
    class       volScalarField;
    location    "constant";
    object      V;
}
// * * * * * * * * * * * * * * * * * * * * * * * * * * * * * * * * * * * * * //

dimensions      [0 3 0 0 0 0 0];

internalField   nonuniform List<scalar> 
96
(
314.97985
314.97984
314.97984
314.97984
314.97985
314.97985
314.97985
314.97984
314.97985
314.97984
314.97984
314.97985
314.97984
314.97984
314.97985
314.97985
314.97985
314.97985
314.97984
314.97984
314.97985
314.97985
314.97984
314.97985
314.97985
314.97984
314.97984
314.97984
314.97985
314.97984
314.97985
314.97985
314.97985
314.97985
314.97985
314.97985
314.97984
314.97984
314.97985
314.97984
314.97984
314.97985
314.97985
314.97985
314.97985
314.97985
314.97984
314.97985
314.97984
314.97984
314.97984
314.97984
314.97985
314.97985
314.97984
314.97984
314.97985
314.97984
314.97985
314.97985
314.97984
314.97984
314.97984
314.97984
314.97985
314.97985
314.97984
314.97984
314.97984
314.97985
314.97985
314.97985
314.97984
314.97984
314.97984
314.97984
314.97985
314.97984
314.97984
314.97984
314.97984
314.97985
314.97985
314.97985
314.97984
314.97984
314.97985
314.97984
314.97984
314.97985
314.97985
314.97984
314.97984
314.97984
314.97985
314.97985
)
;

boundaryField
{
    movingWall
    {
        type            calculated;
        value           uniform 62.995969;
    }
    CPLReceiveMD
    {
        type            calculated;
        value           uniform 62.995969;
    }
    streamwiseIn
    {
        type            cyclic;
    }
    streamwiseOut
    {
        type            cyclic;
    }
    front
    {
        type            cyclic;
    }
    back
    {
        type            cyclic;
    }
}


// ************************************************************************* //
